[root]
type=Root
children=system
eventq_index=0
full_system=false
sim_quantum=0
time_sync_enable=false
time_sync_period=100000000000
time_sync_spin_threshold=100000000

[system]
type=System
children=clk_domain cpu dvfs_handler mem membus workload
auto_unlink_shared_backstore=false
cache_line_size=64
eventq_index=0
exit_on_work_items=false
external_memory_ranges=
init_param=0
m5ops_base=0
mem_mode=timing
mem_ranges=0:1073741824
memories=system.mem
mmap_using_noreserve=false
multi_thread=false
num_work_ids=16
readfile=
redirect_paths=
shadow_rom_ranges=
shared_backstore=
symbolfile=
thermal_components=
thermal_model=Null
work_begin_ckpt_count=0
work_begin_cpu_id_exit=-1
work_begin_exit_count=0
work_cpus_ckpt_count=0
work_end_ckpt_count=0
work_end_exit_count=0
work_item_id=-1
workload=system.workload
system_port=system.membus.cpu_side_ports[3]

[system.clk_domain]
type=SrcClockDomain
children=voltage_domain
clock=333
domain_id=-1
eventq_index=0
init_perf_level=0
voltage_domain=system.clk_domain.voltage_domain

[system.clk_domain.voltage_domain]
type=VoltageDomain
eventq_index=0
voltage=1.0

[system.cpu]
type=BaseTimingSimpleCPU
children=dcache decoder icache interrupts isa mmu power_state tracer workload
branchPred=Null
checker=Null
clk_domain=system.clk_domain
cpu_id=-1
decoder=system.cpu.decoder
do_checkpoint_insts=true
do_statistics_insts=true
eventq_index=0
function_trace=false
function_trace_start=0
interrupts=system.cpu.interrupts
isa=system.cpu.isa
max_insts_all_threads=0
max_insts_any_thread=0
mmu=system.cpu.mmu
numThreads=1
power_gating_on_idle=false
power_model=
power_state=system.cpu.power_state
progress_interval=0
pwr_gating_latency=300
simpoint_start_insts=
socket_id=0
switched_out=false
syscallRetryLatency=10000
system=system
tracer=system.cpu.tracer
workload=system.cpu.workload
dcache_port=system.cpu.dcache.cpu_side
icache_port=system.cpu.icache.cpu_side

[system.cpu.dcache]
type=Cache
children=power_state replacement_policy tags
addr_ranges=0:18446744073709551615
assoc=4
clk_domain=system.clk_domain
clusivity=mostly_incl
compressor=Null
data_latency=1
demand_mshr_reserve=1
eventq_index=0
is_read_only=false
max_miss_count=0
move_contractions=true
mshrs=8
partitioning_manager=Null
power_model=
power_state=system.cpu.dcache.power_state
prefetcher=Null
replace_expansions=true
replacement_policy=system.cpu.dcache.replacement_policy
response_latency=1
sequential_access=false
size=32768
system=system
tag_latency=1
tags=system.cpu.dcache.tags
tgts_per_mshr=20
warmup_percentage=0
write_allocator=Null
write_buffers=8
writeback_clean=false
cpu_side=system.cpu.dcache_port
mem_side=system.membus.cpu_side_ports[1]

[system.cpu.dcache.power_state]
type=PowerState
clk_gate_bins=20
clk_gate_max=1000000000000
clk_gate_min=1000
default_state=UNDEFINED
eventq_index=0
leaders=
possible_states=

[system.cpu.dcache.replacement_policy]
type=DuelingRP
children=replacement_policy_a replacement_policy_b
constituency_size=64
eventq_index=0
replacement_policy_a=system.cpu.dcache.replacement_policy.replacement_policy_a
replacement_policy_b=system.cpu.dcache.replacement_policy.replacement_policy_b
team_size=4

[system.cpu.dcache.replacement_policy.replacement_policy_a]
type=LRURP
eventq_index=0

[system.cpu.dcache.replacement_policy.replacement_policy_b]
type=BIPRP
btp=0
eventq_index=0

[system.cpu.dcache.tags]
type=BaseSetAssoc
children=indexing_policy power_state
assoc=4
block_size=64
clk_domain=system.clk_domain
entry_size=64
eventq_index=0
indexing_policy=system.cpu.dcache.tags.indexing_policy
partitioning_manager=Null
power_model=
power_state=system.cpu.dcache.tags.power_state
replacement_policy=system.cpu.dcache.replacement_policy
sequential_access=false
size=32768
system=system
tag_latency=1
warmup_percentage=0

[system.cpu.dcache.tags.indexing_policy]
type=TaggedSetAssociative
assoc=4
entry_size=64
eventq_index=0
size=32768

[system.cpu.dcache.tags.power_state]
type=PowerState
clk_gate_bins=20
clk_gate_max=1000000000000
clk_gate_min=1000
default_state=UNDEFINED
eventq_index=0
leaders=
possible_states=

[system.cpu.decoder]
type=X86Decoder
eventq_index=0
isa=system.cpu.isa

[system.cpu.icache]
type=Cache
children=power_state replacement_policy tags
addr_ranges=0:18446744073709551615
assoc=4
clk_domain=system.clk_domain
clusivity=mostly_incl
compressor=Null
data_latency=1
demand_mshr_reserve=1
eventq_index=0
is_read_only=false
max_miss_count=0
move_contractions=true
mshrs=8
partitioning_manager=Null
power_model=
power_state=system.cpu.icache.power_state
prefetcher=Null
replace_expansions=true
replacement_policy=system.cpu.icache.replacement_policy
response_latency=1
sequential_access=false
size=32768
system=system
tag_latency=1
tags=system.cpu.icache.tags
tgts_per_mshr=20
warmup_percentage=0
write_allocator=Null
write_buffers=8
writeback_clean=false
cpu_side=system.cpu.icache_port
mem_side=system.membus.cpu_side_ports[0]

[system.cpu.icache.power_state]
type=PowerState
clk_gate_bins=20
clk_gate_max=1000000000000
clk_gate_min=1000
default_state=UNDEFINED
eventq_index=0
leaders=
possible_states=

[system.cpu.icache.replacement_policy]
type=DuelingRP
children=replacement_policy_a replacement_policy_b
constituency_size=64
eventq_index=0
replacement_policy_a=system.cpu.icache.replacement_policy.replacement_policy_a
replacement_policy_b=system.cpu.icache.replacement_policy.replacement_policy_b
team_size=4

[system.cpu.icache.replacement_policy.replacement_policy_a]
type=LRURP
eventq_index=0

[system.cpu.icache.replacement_policy.replacement_policy_b]
type=BIPRP
btp=0
eventq_index=0

[system.cpu.icache.tags]
type=BaseSetAssoc
children=indexing_policy power_state
assoc=4
block_size=64
clk_domain=system.clk_domain
entry_size=64
eventq_index=0
indexing_policy=system.cpu.icache.tags.indexing_policy
partitioning_manager=Null
power_model=
power_state=system.cpu.icache.tags.power_state
replacement_policy=system.cpu.icache.replacement_policy
sequential_access=false
size=32768
system=system
tag_latency=1
warmup_percentage=0

[system.cpu.icache.tags.indexing_policy]
type=TaggedSetAssociative
assoc=4
entry_size=64
eventq_index=0
size=32768

[system.cpu.icache.tags.power_state]
type=PowerState
clk_gate_bins=20
clk_gate_max=1000000000000
clk_gate_min=1000
default_state=UNDEFINED
eventq_index=0
leaders=
possible_states=

[system.cpu.interrupts]
type=X86LocalApic
children=clk_domain
clk_domain=system.cpu.interrupts.clk_domain
eventq_index=0
int_latency=1000
pio_latency=100000
system=system
int_requestor=system.membus.cpu_side_ports[2]
int_responder=system.membus.mem_side_ports[2]
pio=system.membus.mem_side_ports[1]

[system.cpu.interrupts.clk_domain]
type=DerivedClockDomain
clk_divider=16
clk_domain=system.clk_domain
eventq_index=0

[system.cpu.isa]
type=X86ISA
APMInfo=2147483672 1752462657 1769238117 1145913699
CacheParams=0 0 0 0
ExtendedFeatures=0 25165824 0 0
ExtendedState=0 0 0 0 0 0 0 0
FamilyModelStepping=134993 2053 4024171519 521
FamilyModelSteppingBrandFeatures=134993 1029 3956538367 131073
L1CacheAndTLB=4278779656 4280352544 1073873216 1073873216
L2L3CacheAndL2TLB=0 1107313152 0 67141952
LongModeAddressSize=12336 0 0 0
eventq_index=0
name_string=Fake gem5 x86_64 CPU
vendor_string=HygonGenuine

[system.cpu.mmu]
type=X86MMU
children=dtb itb
dtb=system.cpu.mmu.dtb
eventq_index=0
itb=system.cpu.mmu.itb

[system.cpu.mmu.dtb]
type=X86TLB
children=walker
entry_type=data
eventq_index=0
next_level=Null
size=64
system=system
walker=system.cpu.mmu.dtb.walker

[system.cpu.mmu.dtb.walker]
type=X86PagetableWalker
children=power_state
clk_domain=system.clk_domain
eventq_index=0
num_squash_per_cycle=4
power_model=
power_state=system.cpu.mmu.dtb.walker.power_state
system=system

[system.cpu.mmu.dtb.walker.power_state]
type=PowerState
clk_gate_bins=20
clk_gate_max=1000000000000
clk_gate_min=1000
default_state=UNDEFINED
eventq_index=0
leaders=
possible_states=

[system.cpu.mmu.itb]
type=X86TLB
children=walker
entry_type=instruction
eventq_index=0
next_level=Null
size=64
system=system
walker=system.cpu.mmu.itb.walker

[system.cpu.mmu.itb.walker]
type=X86PagetableWalker
children=power_state
clk_domain=system.clk_domain
eventq_index=0
num_squash_per_cycle=4
power_model=
power_state=system.cpu.mmu.itb.walker.power_state
system=system

[system.cpu.mmu.itb.walker.power_state]
type=PowerState
clk_gate_bins=20
clk_gate_max=1000000000000
clk_gate_min=1000
default_state=UNDEFINED
eventq_index=0
leaders=
possible_states=

[system.cpu.power_state]
type=PowerState
clk_gate_bins=20
clk_gate_max=1000000000000
clk_gate_min=1000
default_state=UNDEFINED
eventq_index=0
leaders=
possible_states=ON CLK_GATED OFF

[system.cpu.tracer]
type=ExeTracer
children=disassembler
disassembler=system.cpu.tracer.disassembler
eventq_index=0

[system.cpu.tracer.disassembler]
type=InstDisassembler
eventq_index=0

[system.cpu.workload]
type=Process
cmd=./streaming
cwd=/home/bardiya/Apps/gem5/replacment_policy
drivers=
egid=100
env=
errout=cerr
euid=100
eventq_index=0
executable=
gid=100
input=cin
kvmInSE=false
maxStackSize=67108864
output=cout
pgid=100
pid=100
ppid=0
release=5.1.0
simpoint=0
system=system
uid=100
useArchPT=false
zeroPages=true

[system.dvfs_handler]
type=DVFSHandler
domains=
enable=false
eventq_index=0
sys_clk_domain=system.clk_domain
transition_latency=100000000

[system.mem]
type=SimpleMemory
children=power_state
bandwidth=58.000000
clk_domain=system.clk_domain
collect_stats=true
conf_table_reported=true
eventq_index=0
image_file=
in_addr_map=true
kvm_map=true
latency=50000
latency_var=0
null=false
power_model=
power_state=system.mem.power_state
range=0:1073741824
writeable=true
port=system.membus.mem_side_ports[0]

[system.mem.power_state]
type=PowerState
clk_gate_bins=20
clk_gate_max=1000000000000
clk_gate_min=1000
default_state=UNDEFINED
eventq_index=0
leaders=
possible_states=

[system.membus]
type=CoherentXBar
children=power_state snoop_filter
clk_domain=system.clk_domain
eventq_index=0
forward_latency=4
frontend_latency=3
header_latency=1
max_outstanding_snoops=512
max_routing_table_size=512
point_of_coherency=true
point_of_unification=true
power_model=
power_state=system.membus.power_state
response_latency=2
snoop_filter=system.membus.snoop_filter
snoop_response_latency=4
system=system
use_default_range=false
width=16
cpu_side_ports=system.cpu.icache.mem_side system.cpu.dcache.mem_side system.cpu.interrupts.int_requestor system.system_port
mem_side_ports=system.mem.port system.cpu.interrupts.pio system.cpu.interrupts.int_responder

[system.membus.power_state]
type=PowerState
clk_gate_bins=20
clk_gate_max=1000000000000
clk_gate_min=1000
default_state=UNDEFINED
eventq_index=0
leaders=
possible_states=

[system.membus.snoop_filter]
type=SnoopFilter
eventq_index=0
lookup_latency=1
max_capacity=8388608
system=system

[system.workload]
type=X86EmuLinux
eventq_index=0
remote_gdb_port=#7000
wait_for_remote_gdb=false

